this is a test file. Mary had a little lamb.
new line.
